Circuit: * D:\Desktop\Eng. Controle e Automação\Taura\Seguifor Analógico\Seguidor_de_linha_analogico.asc

Direct Newton iteration failed to find .op point.  (Use ".option noopiter" to skip.)
Starting Gmin stepping
Gmin = 10
Gmin = 1.07374
Gmin = 0.115292
Gmin = 0.0123794
Gmin = 0.00132923
vernier = 0.5
vernier = 0.25
vernier = 0.125
vernier = 0.0625
Gmin = 0.00100083
vernier = 0.03125
vernier = 0.015625
vernier = 0.0078125
vernier = 0.00390625
vernier = 0.00195313
Gmin = 0.00100083
vernier = 0.000976563
vernier = 0.000488281
Gmin = 0
Gmin stepping failed

Starting source stepping with srcstepmethod=0
Source Step = 3.0303%
Source Step = 33.3333%
Source Step = 63.6364%
Source Step = 78.7997%
vernier = 0.000976563
Source Step = 78.8175%
Source Step = 78.8471%
Source Step = 78.8767%
Source Step = 78.9062%
Source Step = 78.9358%
vernier = 0.00146484
Source Step = 78.9758%
Source Step = 79.0202%
Source Step = 79.0646%
Source Step = 79.109%
Source Step = 79.1533%
vernier = 0.00219727
Source Step = 79.2111%
Source Step = 79.2776%
Source Step = 79.3442%
Source Step = 79.4108%
Source Step = 79.4774%
vernier = 0.0032959
Source Step = 79.5606%
Source Step = 79.6605%
Source Step = 79.7604%
Source Step = 79.8602%
Source Step = 79.9601%
vernier = 0.00494385
Source Step = 80.08%
Source Step = 80.2298%
Source Step = 80.3796%
Source Step = 80.5294%
Source Step = 80.6792%
vernier = 0.00741577
Source Step = 80.8515%
Source Step = 81.0762%
Source Step = 81.301%
Source Step = 81.5257%
Source Step = 81.7504%
vernier = 0.0111237
Source Step = 81.9976%
Source Step = 82.3347%
Source Step = 82.6717%
Source Step = 83.0088%
Source Step = 83.3459%
vernier = 0.0166855
Source Step = 83.6998%
Source Step = 84.2055%
Source Step = 84.7111%
Source Step = 85.2167%
Source Step = 85.7223%
Source Step = 86.2279%
vernier = 0.0250282
Source Step = 86.9864%
Source Step = 87.7448%
Source Step = 88.5032%
Source Step = 89.2617%
Source Step = 90.0201%
vernier = 0.0375423
Source Step = 90.4088%
Source Step = 90.6932%
Source Step = 90.9776%
Source Step = 91.262%
Source Step = 91.5464%
vernier = 0.0140784
Source Step = 91.9162%
Source Step = 92.3428%
Source Step = 92.7694%
Source Step = 93.196%
Source Step = 93.6227%
vernier = 0.0211176
Source Step = 94.1559%
Source Step = 94.7959%
Source Step = 95.4358%
Source Step = 96.0757%
Source Step = 96.7156%
vernier = 0.0316764
Source Step = 97.4835%
Source Step = 98.4434%
Source Step = 99.4033%
Source stepping succeeded in finding the operating point.


Date: Tue Sep 27 16:26:31 2022
Total elapsed time: 17.442 seconds.

tnom = 27
temp = 27
method = modified trap
totiter = 76527
traniter = 71319
tranpoints = 23197
accept = 16096
rejected = 7101
matrix size = 431
fillins = 1679
solver = Normal
Thread vector: 63.6/24.4[8] 22.9/9.3[8] 15.7/9.5[8] 2.5/5.2[1]  2592/500
Matrix Compiler1: 162.30 KB object code size  66.2/31.2/[12.0]
Matrix Compiler2: 65.28 KB object code size  18.0/24.1/[5.1]

