Circuit: * D:\Desktop\Eng. Controle e Automacao\Taura\Seguidor_analogico\LTSpice\Oscilador\Oscilador_astavel.asc

Direct Newton iteration failed to find .op point.  (Use ".option noopiter" to skip.)
Starting Gmin stepping
Gmin = 10
Gmin = 1.07374
Gmin = 0.115292
Gmin = 0.0123794
Gmin = 0.00132923
Gmin = 0.000142725
Gmin = 1.5325e-005
Gmin = 1.6455e-006
Gmin = 1.76685e-007
vernier = 0.5
vernier = 0.25
vernier = 0.125
vernier = 0.0625
vernier = 0.03125
vernier = 0.015625
vernier = 0.0078125
Gmin = 1.13078e-007
vernier = 0.00390625
vernier = 0.00195313
vernier = 0.000976563
vernier = 0.000488281
Gmin = 0
Gmin stepping failed

Starting source stepping with srcstepmethod=0
Source Step = 3.0303%
Source Step = 33.3333%
Source Step = 53.7879%
Source Step = 61.3636%
Source Step = 68.9394%
Source Step = 76.5152%
Source Step = 84.0909%
vernier = 0.375
Source Step = 92.4242%
Source Step = 97.4669%
vernier = 0.00585938
Source Step = 97.4491%
Source Step = 97.4935%
Source Step = 97.5379%
Source Step = 97.5823%
Source Step = 97.6267%
vernier = 0.00219727
Source Step = 97.6844%
Source Step = 97.7509%
Source Step = 97.8175%
Source Step = 97.8841%
Source Step = 97.9507%
vernier = 0.0032959
Source Step = 98.0339%
Source Step = 98.1338%
Source Step = 98.2337%
Source Step = 98.3336%
Source Step = 98.4334%
vernier = 0.00494385
Source Step = 98.5533%
Source Step = 98.7031%
Source Step = 98.8529%
Source Step = 99.0027%
Source Step = 99.1525%
vernier = 0.00741577
Source Step = 99.3248%
Source Step = 99.5495%
Source Step = 99.7743%
Source Step = 99.999%
Source stepping succeeded in finding the operating point.


Date: Fri Nov 04 19:16:52 2022
Total elapsed time: 4.281 seconds.

tnom = 27
temp = 27
method = modified trap
totiter = 454254
traniter = 450321
tranpoints = 149415
accept = 107276
rejected = 42139
matrix size = 41
fillins = 68
solver = Normal
Matrix Compiler1:     249 opcodes  0.8/[0.4]/0.5
Matrix Compiler2: 4.79 KB object code size  0.5/0.9/[0.3]

